
---------- Begin Simulation Statistics ----------
sim_seconds                                  0.000001                       # Number of seconds simulated
sim_ticks                                        1000                       # Number of ticks simulated
final_tick                                       1000                       # Number of ticks from beginning of simulation (restored from checkpoints and never reset)
sim_freq                                   1000000000                       # Frequency of simulated ticks
host_tick_rate                                   1643                       # Simulator tick rate (ticks/s)
host_mem_usage                                 931188                       # Number of bytes of host memory used
host_seconds                                     0.61                       # Real time elapsed on the host
system.voltage_domain.voltage                       1                       # Voltage in Volts
system.clk_domain.clock                             1                       # Clock period in ticks
system.mem_ctrls00.pwrStateResidencyTicks::UNDEFINED         1000                       # Cumulative time (in ticks) in various power states
system.mem_ctrls00.readReqs                         0                       # Number of read requests accepted
system.mem_ctrls00.writeReqs                        0                       # Number of write requests accepted
system.mem_ctrls00.readBursts                       0                       # Number of DRAM read bursts, including those serviced by the write queue
system.mem_ctrls00.writeBursts                      0                       # Number of DRAM write bursts, including those merged in the write queue
system.mem_ctrls00.bytesReadDRAM                    0                       # Total number of bytes read from DRAM
system.mem_ctrls00.bytesReadWrQ                     0                       # Total number of bytes read from write queue
system.mem_ctrls00.bytesWritten                     0                       # Total number of bytes written to DRAM
system.mem_ctrls00.bytesReadSys                     0                       # Total read bytes from the system interface side
system.mem_ctrls00.bytesWrittenSys                  0                       # Total written bytes from the system interface side
system.mem_ctrls00.servicedByWrQ                    0                       # Number of DRAM read bursts serviced by the write queue
system.mem_ctrls00.mergedWrBursts                   0                       # Number of DRAM write bursts merged with an existing one
system.mem_ctrls00.neitherReadNorWriteReqs            0                       # Number of requests that are neither read nor write
system.mem_ctrls00.perBankRdBursts::0               0                       # Per bank write bursts
system.mem_ctrls00.perBankRdBursts::1               0                       # Per bank write bursts
system.mem_ctrls00.perBankRdBursts::2               0                       # Per bank write bursts
system.mem_ctrls00.perBankRdBursts::3               0                       # Per bank write bursts
system.mem_ctrls00.perBankRdBursts::4               0                       # Per bank write bursts
system.mem_ctrls00.perBankRdBursts::5               0                       # Per bank write bursts
system.mem_ctrls00.perBankRdBursts::6               0                       # Per bank write bursts
system.mem_ctrls00.perBankRdBursts::7               0                       # Per bank write bursts
system.mem_ctrls00.perBankRdBursts::8               0                       # Per bank write bursts
system.mem_ctrls00.perBankRdBursts::9               0                       # Per bank write bursts
system.mem_ctrls00.perBankRdBursts::10              0                       # Per bank write bursts
system.mem_ctrls00.perBankRdBursts::11              0                       # Per bank write bursts
system.mem_ctrls00.perBankRdBursts::12              0                       # Per bank write bursts
system.mem_ctrls00.perBankRdBursts::13              0                       # Per bank write bursts
system.mem_ctrls00.perBankRdBursts::14              0                       # Per bank write bursts
system.mem_ctrls00.perBankRdBursts::15              0                       # Per bank write bursts
system.mem_ctrls00.perBankWrBursts::0               0                       # Per bank write bursts
system.mem_ctrls00.perBankWrBursts::1               0                       # Per bank write bursts
system.mem_ctrls00.perBankWrBursts::2               0                       # Per bank write bursts
system.mem_ctrls00.perBankWrBursts::3               0                       # Per bank write bursts
system.mem_ctrls00.perBankWrBursts::4               0                       # Per bank write bursts
system.mem_ctrls00.perBankWrBursts::5               0                       # Per bank write bursts
system.mem_ctrls00.perBankWrBursts::6               0                       # Per bank write bursts
system.mem_ctrls00.perBankWrBursts::7               0                       # Per bank write bursts
system.mem_ctrls00.perBankWrBursts::8               0                       # Per bank write bursts
system.mem_ctrls00.perBankWrBursts::9               0                       # Per bank write bursts
system.mem_ctrls00.perBankWrBursts::10              0                       # Per bank write bursts
system.mem_ctrls00.perBankWrBursts::11              0                       # Per bank write bursts
system.mem_ctrls00.perBankWrBursts::12              0                       # Per bank write bursts
system.mem_ctrls00.perBankWrBursts::13              0                       # Per bank write bursts
system.mem_ctrls00.perBankWrBursts::14              0                       # Per bank write bursts
system.mem_ctrls00.perBankWrBursts::15              0                       # Per bank write bursts
system.mem_ctrls00.numRdRetry                       0                       # Number of times read queue was full causing retry
system.mem_ctrls00.numWrRetry                       0                       # Number of times write queue was full causing retry
system.mem_ctrls00.totGap                           0                       # Total gap between requests
system.mem_ctrls00.readPktSize::0                   0                       # Read request sizes (log2)
system.mem_ctrls00.readPktSize::1                   0                       # Read request sizes (log2)
system.mem_ctrls00.readPktSize::2                   0                       # Read request sizes (log2)
system.mem_ctrls00.readPktSize::3                   0                       # Read request sizes (log2)
system.mem_ctrls00.readPktSize::4                   0                       # Read request sizes (log2)
system.mem_ctrls00.readPktSize::5                   0                       # Read request sizes (log2)
system.mem_ctrls00.readPktSize::6                   0                       # Read request sizes (log2)
system.mem_ctrls00.writePktSize::0                  0                       # Write request sizes (log2)
system.mem_ctrls00.writePktSize::1                  0                       # Write request sizes (log2)
system.mem_ctrls00.writePktSize::2                  0                       # Write request sizes (log2)
system.mem_ctrls00.writePktSize::3                  0                       # Write request sizes (log2)
system.mem_ctrls00.writePktSize::4                  0                       # Write request sizes (log2)
system.mem_ctrls00.writePktSize::5                  0                       # Write request sizes (log2)
system.mem_ctrls00.writePktSize::6                  0                       # Write request sizes (log2)
system.mem_ctrls00.rdQLenPdf::0                     0                       # What read queue length does an incoming req see
system.mem_ctrls00.rdQLenPdf::1                     0                       # What read queue length does an incoming req see
system.mem_ctrls00.rdQLenPdf::2                     0                       # What read queue length does an incoming req see
system.mem_ctrls00.rdQLenPdf::3                     0                       # What read queue length does an incoming req see
system.mem_ctrls00.rdQLenPdf::4                     0                       # What read queue length does an incoming req see
system.mem_ctrls00.rdQLenPdf::5                     0                       # What read queue length does an incoming req see
system.mem_ctrls00.rdQLenPdf::6                     0                       # What read queue length does an incoming req see
system.mem_ctrls00.rdQLenPdf::7                     0                       # What read queue length does an incoming req see
system.mem_ctrls00.rdQLenPdf::8                     0                       # What read queue length does an incoming req see
system.mem_ctrls00.rdQLenPdf::9                     0                       # What read queue length does an incoming req see
system.mem_ctrls00.rdQLenPdf::10                    0                       # What read queue length does an incoming req see
system.mem_ctrls00.rdQLenPdf::11                    0                       # What read queue length does an incoming req see
system.mem_ctrls00.rdQLenPdf::12                    0                       # What read queue length does an incoming req see
system.mem_ctrls00.rdQLenPdf::13                    0                       # What read queue length does an incoming req see
system.mem_ctrls00.rdQLenPdf::14                    0                       # What read queue length does an incoming req see
system.mem_ctrls00.rdQLenPdf::15                    0                       # What read queue length does an incoming req see
system.mem_ctrls00.rdQLenPdf::16                    0                       # What read queue length does an incoming req see
system.mem_ctrls00.rdQLenPdf::17                    0                       # What read queue length does an incoming req see
system.mem_ctrls00.rdQLenPdf::18                    0                       # What read queue length does an incoming req see
system.mem_ctrls00.rdQLenPdf::19                    0                       # What read queue length does an incoming req see
system.mem_ctrls00.rdQLenPdf::20                    0                       # What read queue length does an incoming req see
system.mem_ctrls00.rdQLenPdf::21                    0                       # What read queue length does an incoming req see
system.mem_ctrls00.rdQLenPdf::22                    0                       # What read queue length does an incoming req see
system.mem_ctrls00.rdQLenPdf::23                    0                       # What read queue length does an incoming req see
system.mem_ctrls00.rdQLenPdf::24                    0                       # What read queue length does an incoming req see
system.mem_ctrls00.rdQLenPdf::25                    0                       # What read queue length does an incoming req see
system.mem_ctrls00.rdQLenPdf::26                    0                       # What read queue length does an incoming req see
system.mem_ctrls00.rdQLenPdf::27                    0                       # What read queue length does an incoming req see
system.mem_ctrls00.rdQLenPdf::28                    0                       # What read queue length does an incoming req see
system.mem_ctrls00.rdQLenPdf::29                    0                       # What read queue length does an incoming req see
system.mem_ctrls00.rdQLenPdf::30                    0                       # What read queue length does an incoming req see
system.mem_ctrls00.rdQLenPdf::31                    0                       # What read queue length does an incoming req see
system.mem_ctrls00.wrQLenPdf::0                     0                       # What write queue length does an incoming req see
system.mem_ctrls00.wrQLenPdf::1                     0                       # What write queue length does an incoming req see
system.mem_ctrls00.wrQLenPdf::2                     0                       # What write queue length does an incoming req see
system.mem_ctrls00.wrQLenPdf::3                     0                       # What write queue length does an incoming req see
system.mem_ctrls00.wrQLenPdf::4                     0                       # What write queue length does an incoming req see
system.mem_ctrls00.wrQLenPdf::5                     0                       # What write queue length does an incoming req see
system.mem_ctrls00.wrQLenPdf::6                     0                       # What write queue length does an incoming req see
system.mem_ctrls00.wrQLenPdf::7                     0                       # What write queue length does an incoming req see
system.mem_ctrls00.wrQLenPdf::8                     0                       # What write queue length does an incoming req see
system.mem_ctrls00.wrQLenPdf::9                     0                       # What write queue length does an incoming req see
system.mem_ctrls00.wrQLenPdf::10                    0                       # What write queue length does an incoming req see
system.mem_ctrls00.wrQLenPdf::11                    0                       # What write queue length does an incoming req see
system.mem_ctrls00.wrQLenPdf::12                    0                       # What write queue length does an incoming req see
system.mem_ctrls00.wrQLenPdf::13                    0                       # What write queue length does an incoming req see
system.mem_ctrls00.wrQLenPdf::14                    0                       # What write queue length does an incoming req see
system.mem_ctrls00.wrQLenPdf::15                    0                       # What write queue length does an incoming req see
system.mem_ctrls00.wrQLenPdf::16                    0                       # What write queue length does an incoming req see
system.mem_ctrls00.wrQLenPdf::17                    0                       # What write queue length does an incoming req see
system.mem_ctrls00.wrQLenPdf::18                    0                       # What write queue length does an incoming req see
system.mem_ctrls00.wrQLenPdf::19                    0                       # What write queue length does an incoming req see
system.mem_ctrls00.wrQLenPdf::20                    0                       # What write queue length does an incoming req see
system.mem_ctrls00.wrQLenPdf::21                    0                       # What write queue length does an incoming req see
system.mem_ctrls00.wrQLenPdf::22                    0                       # What write queue length does an incoming req see
system.mem_ctrls00.wrQLenPdf::23                    0                       # What write queue length does an incoming req see
system.mem_ctrls00.wrQLenPdf::24                    0                       # What write queue length does an incoming req see
system.mem_ctrls00.wrQLenPdf::25                    0                       # What write queue length does an incoming req see
system.mem_ctrls00.wrQLenPdf::26                    0                       # What write queue length does an incoming req see
system.mem_ctrls00.wrQLenPdf::27                    0                       # What write queue length does an incoming req see
system.mem_ctrls00.wrQLenPdf::28                    0                       # What write queue length does an incoming req see
system.mem_ctrls00.wrQLenPdf::29                    0                       # What write queue length does an incoming req see
system.mem_ctrls00.wrQLenPdf::30                    0                       # What write queue length does an incoming req see
system.mem_ctrls00.wrQLenPdf::31                    0                       # What write queue length does an incoming req see
system.mem_ctrls00.wrQLenPdf::32                    0                       # What write queue length does an incoming req see
system.mem_ctrls00.wrQLenPdf::33                    0                       # What write queue length does an incoming req see
system.mem_ctrls00.wrQLenPdf::34                    0                       # What write queue length does an incoming req see
system.mem_ctrls00.wrQLenPdf::35                    0                       # What write queue length does an incoming req see
system.mem_ctrls00.wrQLenPdf::36                    0                       # What write queue length does an incoming req see
system.mem_ctrls00.wrQLenPdf::37                    0                       # What write queue length does an incoming req see
system.mem_ctrls00.wrQLenPdf::38                    0                       # What write queue length does an incoming req see
system.mem_ctrls00.wrQLenPdf::39                    0                       # What write queue length does an incoming req see
system.mem_ctrls00.wrQLenPdf::40                    0                       # What write queue length does an incoming req see
system.mem_ctrls00.wrQLenPdf::41                    0                       # What write queue length does an incoming req see
system.mem_ctrls00.wrQLenPdf::42                    0                       # What write queue length does an incoming req see
system.mem_ctrls00.wrQLenPdf::43                    0                       # What write queue length does an incoming req see
system.mem_ctrls00.wrQLenPdf::44                    0                       # What write queue length does an incoming req see
system.mem_ctrls00.wrQLenPdf::45                    0                       # What write queue length does an incoming req see
system.mem_ctrls00.wrQLenPdf::46                    0                       # What write queue length does an incoming req see
system.mem_ctrls00.wrQLenPdf::47                    0                       # What write queue length does an incoming req see
system.mem_ctrls00.wrQLenPdf::48                    0                       # What write queue length does an incoming req see
system.mem_ctrls00.wrQLenPdf::49                    0                       # What write queue length does an incoming req see
system.mem_ctrls00.wrQLenPdf::50                    0                       # What write queue length does an incoming req see
system.mem_ctrls00.wrQLenPdf::51                    0                       # What write queue length does an incoming req see
system.mem_ctrls00.wrQLenPdf::52                    0                       # What write queue length does an incoming req see
system.mem_ctrls00.wrQLenPdf::53                    0                       # What write queue length does an incoming req see
system.mem_ctrls00.wrQLenPdf::54                    0                       # What write queue length does an incoming req see
system.mem_ctrls00.wrQLenPdf::55                    0                       # What write queue length does an incoming req see
system.mem_ctrls00.wrQLenPdf::56                    0                       # What write queue length does an incoming req see
system.mem_ctrls00.wrQLenPdf::57                    0                       # What write queue length does an incoming req see
system.mem_ctrls00.wrQLenPdf::58                    0                       # What write queue length does an incoming req see
system.mem_ctrls00.wrQLenPdf::59                    0                       # What write queue length does an incoming req see
system.mem_ctrls00.wrQLenPdf::60                    0                       # What write queue length does an incoming req see
system.mem_ctrls00.wrQLenPdf::61                    0                       # What write queue length does an incoming req see
system.mem_ctrls00.wrQLenPdf::62                    0                       # What write queue length does an incoming req see
system.mem_ctrls00.wrQLenPdf::63                    0                       # What write queue length does an incoming req see
system.mem_ctrls00.totQLat                          0                       # Total ticks spent queuing
system.mem_ctrls00.totMemAccLat                     0                       # Total ticks spent from burst creation until serviced by the DRAM
system.mem_ctrls00.totBusLat                        0                       # Total ticks spent in databus transfers
system.mem_ctrls00.avgQLat                        nan                       # Average queueing delay per DRAM burst
system.mem_ctrls00.avgBusLat                      nan                       # Average bus latency per DRAM burst
system.mem_ctrls00.avgMemAccLat                   nan                       # Average memory access latency per DRAM burst
system.mem_ctrls00.avgRdBW                       0.00                       # Average DRAM read bandwidth in MiByte/s
system.mem_ctrls00.avgWrBW                       0.00                       # Average achieved write bandwidth in MiByte/s
system.mem_ctrls00.avgRdBWSys                    0.00                       # Average system read bandwidth in MiByte/s
system.mem_ctrls00.avgWrBWSys                    0.00                       # Average system write bandwidth in MiByte/s
system.mem_ctrls00.peakBW                    12800.00                       # Theoretical peak bandwidth in MiByte/s
system.mem_ctrls00.busUtil                       0.00                       # Data bus utilization in percentage
system.mem_ctrls00.busUtilRead                   0.00                       # Data bus utilization in percentage for reads
system.mem_ctrls00.busUtilWrite                  0.00                       # Data bus utilization in percentage for writes
system.mem_ctrls00.avgRdQLen                     0.00                       # Average read queue length when enqueuing
system.mem_ctrls00.avgWrQLen                     0.00                       # Average write queue length when enqueuing
system.mem_ctrls00.readRowHits                      0                       # Number of row buffer hits during reads
system.mem_ctrls00.writeRowHits                     0                       # Number of row buffer hits during writes
system.mem_ctrls00.readRowHitRate                 nan                       # Row buffer hit rate for reads
system.mem_ctrls00.writeRowHitRate                nan                       # Row buffer hit rate for writes
system.mem_ctrls00.avgGap                         nan                       # Average gap between requests
system.mem_ctrls00.pageHitRate                    nan                       # Row buffer hit rate, read and write combined
system.mem_ctrls00_0.actEnergy                      0                       # Energy for activate commands per rank (pJ)
system.mem_ctrls00_0.preEnergy                      0                       # Energy for precharge commands per rank (pJ)
system.mem_ctrls00_0.readEnergy                     0                       # Energy for read commands per rank (pJ)
system.mem_ctrls00_0.writeEnergy                    0                       # Energy for write commands per rank (pJ)
system.mem_ctrls00_0.refreshEnergy                  0                       # Energy for refresh commands per rank (pJ)
system.mem_ctrls00_0.actBackEnergy                  0                       # Energy for active background per rank (pJ)
system.mem_ctrls00_0.preBackEnergy             384000                       # Energy for precharge background per rank (pJ)
system.mem_ctrls00_0.actPowerDownEnergy             0                       # Energy for active power-down per rank (pJ)
system.mem_ctrls00_0.prePowerDownEnergy             0                       # Energy for precharge power-down per rank (pJ)
system.mem_ctrls00_0.selfRefreshEnergy              0                       # Energy for self refresh per rank (pJ)
system.mem_ctrls00_0.totalEnergy               384000                       # Total energy per rank (pJ)
system.mem_ctrls00_0.averagePower                 384                       # Core power per rank (mW)
system.mem_ctrls00_0.totalIdleTime                  0                       # Total Idle time Per DRAM Rank
system.mem_ctrls00_0.memoryStateTime::IDLE         1000                       # Time in different power states
system.mem_ctrls00_0.memoryStateTime::REF            0                       # Time in different power states
system.mem_ctrls00_0.memoryStateTime::SREF            0                       # Time in different power states
system.mem_ctrls00_0.memoryStateTime::PRE_PDN            0                       # Time in different power states
system.mem_ctrls00_0.memoryStateTime::ACT            0                       # Time in different power states
system.mem_ctrls00_0.memoryStateTime::ACT_PDN            0                       # Time in different power states
system.mem_ctrls00_1.actEnergy                      0                       # Energy for activate commands per rank (pJ)
system.mem_ctrls00_1.preEnergy                      0                       # Energy for precharge commands per rank (pJ)
system.mem_ctrls00_1.readEnergy                     0                       # Energy for read commands per rank (pJ)
system.mem_ctrls00_1.writeEnergy                    0                       # Energy for write commands per rank (pJ)
system.mem_ctrls00_1.refreshEnergy                  0                       # Energy for refresh commands per rank (pJ)
system.mem_ctrls00_1.actBackEnergy                  0                       # Energy for active background per rank (pJ)
system.mem_ctrls00_1.preBackEnergy             384000                       # Energy for precharge background per rank (pJ)
system.mem_ctrls00_1.actPowerDownEnergy             0                       # Energy for active power-down per rank (pJ)
system.mem_ctrls00_1.prePowerDownEnergy             0                       # Energy for precharge power-down per rank (pJ)
system.mem_ctrls00_1.selfRefreshEnergy              0                       # Energy for self refresh per rank (pJ)
system.mem_ctrls00_1.totalEnergy               384000                       # Total energy per rank (pJ)
system.mem_ctrls00_1.averagePower                 384                       # Core power per rank (mW)
system.mem_ctrls00_1.totalIdleTime                  0                       # Total Idle time Per DRAM Rank
system.mem_ctrls00_1.memoryStateTime::IDLE         1000                       # Time in different power states
system.mem_ctrls00_1.memoryStateTime::REF            0                       # Time in different power states
system.mem_ctrls00_1.memoryStateTime::SREF            0                       # Time in different power states
system.mem_ctrls00_1.memoryStateTime::PRE_PDN            0                       # Time in different power states
system.mem_ctrls00_1.memoryStateTime::ACT            0                       # Time in different power states
system.mem_ctrls00_1.memoryStateTime::ACT_PDN            0                       # Time in different power states
system.mem_ctrls01.pwrStateResidencyTicks::UNDEFINED         1000                       # Cumulative time (in ticks) in various power states
system.mem_ctrls01.readReqs                         0                       # Number of read requests accepted
system.mem_ctrls01.writeReqs                        0                       # Number of write requests accepted
system.mem_ctrls01.readBursts                       0                       # Number of DRAM read bursts, including those serviced by the write queue
system.mem_ctrls01.writeBursts                      0                       # Number of DRAM write bursts, including those merged in the write queue
system.mem_ctrls01.bytesReadDRAM                    0                       # Total number of bytes read from DRAM
system.mem_ctrls01.bytesReadWrQ                     0                       # Total number of bytes read from write queue
system.mem_ctrls01.bytesWritten                     0                       # Total number of bytes written to DRAM
system.mem_ctrls01.bytesReadSys                     0                       # Total read bytes from the system interface side
system.mem_ctrls01.bytesWrittenSys                  0                       # Total written bytes from the system interface side
system.mem_ctrls01.servicedByWrQ                    0                       # Number of DRAM read bursts serviced by the write queue
system.mem_ctrls01.mergedWrBursts                   0                       # Number of DRAM write bursts merged with an existing one
system.mem_ctrls01.neitherReadNorWriteReqs            0                       # Number of requests that are neither read nor write
system.mem_ctrls01.perBankRdBursts::0               0                       # Per bank write bursts
system.mem_ctrls01.perBankRdBursts::1               0                       # Per bank write bursts
system.mem_ctrls01.perBankRdBursts::2               0                       # Per bank write bursts
system.mem_ctrls01.perBankRdBursts::3               0                       # Per bank write bursts
system.mem_ctrls01.perBankRdBursts::4               0                       # Per bank write bursts
system.mem_ctrls01.perBankRdBursts::5               0                       # Per bank write bursts
system.mem_ctrls01.perBankRdBursts::6               0                       # Per bank write bursts
system.mem_ctrls01.perBankRdBursts::7               0                       # Per bank write bursts
system.mem_ctrls01.perBankRdBursts::8               0                       # Per bank write bursts
system.mem_ctrls01.perBankRdBursts::9               0                       # Per bank write bursts
system.mem_ctrls01.perBankRdBursts::10              0                       # Per bank write bursts
system.mem_ctrls01.perBankRdBursts::11              0                       # Per bank write bursts
system.mem_ctrls01.perBankRdBursts::12              0                       # Per bank write bursts
system.mem_ctrls01.perBankRdBursts::13              0                       # Per bank write bursts
system.mem_ctrls01.perBankRdBursts::14              0                       # Per bank write bursts
system.mem_ctrls01.perBankRdBursts::15              0                       # Per bank write bursts
system.mem_ctrls01.perBankWrBursts::0               0                       # Per bank write bursts
system.mem_ctrls01.perBankWrBursts::1               0                       # Per bank write bursts
system.mem_ctrls01.perBankWrBursts::2               0                       # Per bank write bursts
system.mem_ctrls01.perBankWrBursts::3               0                       # Per bank write bursts
system.mem_ctrls01.perBankWrBursts::4               0                       # Per bank write bursts
system.mem_ctrls01.perBankWrBursts::5               0                       # Per bank write bursts
system.mem_ctrls01.perBankWrBursts::6               0                       # Per bank write bursts
system.mem_ctrls01.perBankWrBursts::7               0                       # Per bank write bursts
system.mem_ctrls01.perBankWrBursts::8               0                       # Per bank write bursts
system.mem_ctrls01.perBankWrBursts::9               0                       # Per bank write bursts
system.mem_ctrls01.perBankWrBursts::10              0                       # Per bank write bursts
system.mem_ctrls01.perBankWrBursts::11              0                       # Per bank write bursts
system.mem_ctrls01.perBankWrBursts::12              0                       # Per bank write bursts
system.mem_ctrls01.perBankWrBursts::13              0                       # Per bank write bursts
system.mem_ctrls01.perBankWrBursts::14              0                       # Per bank write bursts
system.mem_ctrls01.perBankWrBursts::15              0                       # Per bank write bursts
system.mem_ctrls01.numRdRetry                       0                       # Number of times read queue was full causing retry
system.mem_ctrls01.numWrRetry                       0                       # Number of times write queue was full causing retry
system.mem_ctrls01.totGap                           0                       # Total gap between requests
system.mem_ctrls01.readPktSize::0                   0                       # Read request sizes (log2)
system.mem_ctrls01.readPktSize::1                   0                       # Read request sizes (log2)
system.mem_ctrls01.readPktSize::2                   0                       # Read request sizes (log2)
system.mem_ctrls01.readPktSize::3                   0                       # Read request sizes (log2)
system.mem_ctrls01.readPktSize::4                   0                       # Read request sizes (log2)
system.mem_ctrls01.readPktSize::5                   0                       # Read request sizes (log2)
system.mem_ctrls01.readPktSize::6                   0                       # Read request sizes (log2)
system.mem_ctrls01.writePktSize::0                  0                       # Write request sizes (log2)
system.mem_ctrls01.writePktSize::1                  0                       # Write request sizes (log2)
system.mem_ctrls01.writePktSize::2                  0                       # Write request sizes (log2)
system.mem_ctrls01.writePktSize::3                  0                       # Write request sizes (log2)
system.mem_ctrls01.writePktSize::4                  0                       # Write request sizes (log2)
system.mem_ctrls01.writePktSize::5                  0                       # Write request sizes (log2)
system.mem_ctrls01.writePktSize::6                  0                       # Write request sizes (log2)
system.mem_ctrls01.rdQLenPdf::0                     0                       # What read queue length does an incoming req see
system.mem_ctrls01.rdQLenPdf::1                     0                       # What read queue length does an incoming req see
system.mem_ctrls01.rdQLenPdf::2                     0                       # What read queue length does an incoming req see
system.mem_ctrls01.rdQLenPdf::3                     0                       # What read queue length does an incoming req see
system.mem_ctrls01.rdQLenPdf::4                     0                       # What read queue length does an incoming req see
system.mem_ctrls01.rdQLenPdf::5                     0                       # What read queue length does an incoming req see
system.mem_ctrls01.rdQLenPdf::6                     0                       # What read queue length does an incoming req see
system.mem_ctrls01.rdQLenPdf::7                     0                       # What read queue length does an incoming req see
system.mem_ctrls01.rdQLenPdf::8                     0                       # What read queue length does an incoming req see
system.mem_ctrls01.rdQLenPdf::9                     0                       # What read queue length does an incoming req see
system.mem_ctrls01.rdQLenPdf::10                    0                       # What read queue length does an incoming req see
system.mem_ctrls01.rdQLenPdf::11                    0                       # What read queue length does an incoming req see
system.mem_ctrls01.rdQLenPdf::12                    0                       # What read queue length does an incoming req see
system.mem_ctrls01.rdQLenPdf::13                    0                       # What read queue length does an incoming req see
system.mem_ctrls01.rdQLenPdf::14                    0                       # What read queue length does an incoming req see
system.mem_ctrls01.rdQLenPdf::15                    0                       # What read queue length does an incoming req see
system.mem_ctrls01.rdQLenPdf::16                    0                       # What read queue length does an incoming req see
system.mem_ctrls01.rdQLenPdf::17                    0                       # What read queue length does an incoming req see
system.mem_ctrls01.rdQLenPdf::18                    0                       # What read queue length does an incoming req see
system.mem_ctrls01.rdQLenPdf::19                    0                       # What read queue length does an incoming req see
system.mem_ctrls01.rdQLenPdf::20                    0                       # What read queue length does an incoming req see
system.mem_ctrls01.rdQLenPdf::21                    0                       # What read queue length does an incoming req see
system.mem_ctrls01.rdQLenPdf::22                    0                       # What read queue length does an incoming req see
system.mem_ctrls01.rdQLenPdf::23                    0                       # What read queue length does an incoming req see
system.mem_ctrls01.rdQLenPdf::24                    0                       # What read queue length does an incoming req see
system.mem_ctrls01.rdQLenPdf::25                    0                       # What read queue length does an incoming req see
system.mem_ctrls01.rdQLenPdf::26                    0                       # What read queue length does an incoming req see
system.mem_ctrls01.rdQLenPdf::27                    0                       # What read queue length does an incoming req see
system.mem_ctrls01.rdQLenPdf::28                    0                       # What read queue length does an incoming req see
system.mem_ctrls01.rdQLenPdf::29                    0                       # What read queue length does an incoming req see
system.mem_ctrls01.rdQLenPdf::30                    0                       # What read queue length does an incoming req see
system.mem_ctrls01.rdQLenPdf::31                    0                       # What read queue length does an incoming req see
system.mem_ctrls01.wrQLenPdf::0                     0                       # What write queue length does an incoming req see
system.mem_ctrls01.wrQLenPdf::1                     0                       # What write queue length does an incoming req see
system.mem_ctrls01.wrQLenPdf::2                     0                       # What write queue length does an incoming req see
system.mem_ctrls01.wrQLenPdf::3                     0                       # What write queue length does an incoming req see
system.mem_ctrls01.wrQLenPdf::4                     0                       # What write queue length does an incoming req see
system.mem_ctrls01.wrQLenPdf::5                     0                       # What write queue length does an incoming req see
system.mem_ctrls01.wrQLenPdf::6                     0                       # What write queue length does an incoming req see
system.mem_ctrls01.wrQLenPdf::7                     0                       # What write queue length does an incoming req see
system.mem_ctrls01.wrQLenPdf::8                     0                       # What write queue length does an incoming req see
system.mem_ctrls01.wrQLenPdf::9                     0                       # What write queue length does an incoming req see
system.mem_ctrls01.wrQLenPdf::10                    0                       # What write queue length does an incoming req see
system.mem_ctrls01.wrQLenPdf::11                    0                       # What write queue length does an incoming req see
system.mem_ctrls01.wrQLenPdf::12                    0                       # What write queue length does an incoming req see
system.mem_ctrls01.wrQLenPdf::13                    0                       # What write queue length does an incoming req see
system.mem_ctrls01.wrQLenPdf::14                    0                       # What write queue length does an incoming req see
system.mem_ctrls01.wrQLenPdf::15                    0                       # What write queue length does an incoming req see
system.mem_ctrls01.wrQLenPdf::16                    0                       # What write queue length does an incoming req see
system.mem_ctrls01.wrQLenPdf::17                    0                       # What write queue length does an incoming req see
system.mem_ctrls01.wrQLenPdf::18                    0                       # What write queue length does an incoming req see
system.mem_ctrls01.wrQLenPdf::19                    0                       # What write queue length does an incoming req see
system.mem_ctrls01.wrQLenPdf::20                    0                       # What write queue length does an incoming req see
system.mem_ctrls01.wrQLenPdf::21                    0                       # What write queue length does an incoming req see
system.mem_ctrls01.wrQLenPdf::22                    0                       # What write queue length does an incoming req see
system.mem_ctrls01.wrQLenPdf::23                    0                       # What write queue length does an incoming req see
system.mem_ctrls01.wrQLenPdf::24                    0                       # What write queue length does an incoming req see
system.mem_ctrls01.wrQLenPdf::25                    0                       # What write queue length does an incoming req see
system.mem_ctrls01.wrQLenPdf::26                    0                       # What write queue length does an incoming req see
system.mem_ctrls01.wrQLenPdf::27                    0                       # What write queue length does an incoming req see
system.mem_ctrls01.wrQLenPdf::28                    0                       # What write queue length does an incoming req see
system.mem_ctrls01.wrQLenPdf::29                    0                       # What write queue length does an incoming req see
system.mem_ctrls01.wrQLenPdf::30                    0                       # What write queue length does an incoming req see
system.mem_ctrls01.wrQLenPdf::31                    0                       # What write queue length does an incoming req see
system.mem_ctrls01.wrQLenPdf::32                    0                       # What write queue length does an incoming req see
system.mem_ctrls01.wrQLenPdf::33                    0                       # What write queue length does an incoming req see
system.mem_ctrls01.wrQLenPdf::34                    0                       # What write queue length does an incoming req see
system.mem_ctrls01.wrQLenPdf::35                    0                       # What write queue length does an incoming req see
system.mem_ctrls01.wrQLenPdf::36                    0                       # What write queue length does an incoming req see
system.mem_ctrls01.wrQLenPdf::37                    0                       # What write queue length does an incoming req see
system.mem_ctrls01.wrQLenPdf::38                    0                       # What write queue length does an incoming req see
system.mem_ctrls01.wrQLenPdf::39                    0                       # What write queue length does an incoming req see
system.mem_ctrls01.wrQLenPdf::40                    0                       # What write queue length does an incoming req see
system.mem_ctrls01.wrQLenPdf::41                    0                       # What write queue length does an incoming req see
system.mem_ctrls01.wrQLenPdf::42                    0                       # What write queue length does an incoming req see
system.mem_ctrls01.wrQLenPdf::43                    0                       # What write queue length does an incoming req see
system.mem_ctrls01.wrQLenPdf::44                    0                       # What write queue length does an incoming req see
system.mem_ctrls01.wrQLenPdf::45                    0                       # What write queue length does an incoming req see
system.mem_ctrls01.wrQLenPdf::46                    0                       # What write queue length does an incoming req see
system.mem_ctrls01.wrQLenPdf::47                    0                       # What write queue length does an incoming req see
system.mem_ctrls01.wrQLenPdf::48                    0                       # What write queue length does an incoming req see
system.mem_ctrls01.wrQLenPdf::49                    0                       # What write queue length does an incoming req see
system.mem_ctrls01.wrQLenPdf::50                    0                       # What write queue length does an incoming req see
system.mem_ctrls01.wrQLenPdf::51                    0                       # What write queue length does an incoming req see
system.mem_ctrls01.wrQLenPdf::52                    0                       # What write queue length does an incoming req see
system.mem_ctrls01.wrQLenPdf::53                    0                       # What write queue length does an incoming req see
system.mem_ctrls01.wrQLenPdf::54                    0                       # What write queue length does an incoming req see
system.mem_ctrls01.wrQLenPdf::55                    0                       # What write queue length does an incoming req see
system.mem_ctrls01.wrQLenPdf::56                    0                       # What write queue length does an incoming req see
system.mem_ctrls01.wrQLenPdf::57                    0                       # What write queue length does an incoming req see
system.mem_ctrls01.wrQLenPdf::58                    0                       # What write queue length does an incoming req see
system.mem_ctrls01.wrQLenPdf::59                    0                       # What write queue length does an incoming req see
system.mem_ctrls01.wrQLenPdf::60                    0                       # What write queue length does an incoming req see
system.mem_ctrls01.wrQLenPdf::61                    0                       # What write queue length does an incoming req see
system.mem_ctrls01.wrQLenPdf::62                    0                       # What write queue length does an incoming req see
system.mem_ctrls01.wrQLenPdf::63                    0                       # What write queue length does an incoming req see
system.mem_ctrls01.totQLat                          0                       # Total ticks spent queuing
system.mem_ctrls01.totMemAccLat                     0                       # Total ticks spent from burst creation until serviced by the DRAM
system.mem_ctrls01.totBusLat                        0                       # Total ticks spent in databus transfers
system.mem_ctrls01.avgQLat                        nan                       # Average queueing delay per DRAM burst
system.mem_ctrls01.avgBusLat                      nan                       # Average bus latency per DRAM burst
system.mem_ctrls01.avgMemAccLat                   nan                       # Average memory access latency per DRAM burst
system.mem_ctrls01.avgRdBW                       0.00                       # Average DRAM read bandwidth in MiByte/s
system.mem_ctrls01.avgWrBW                       0.00                       # Average achieved write bandwidth in MiByte/s
system.mem_ctrls01.avgRdBWSys                    0.00                       # Average system read bandwidth in MiByte/s
system.mem_ctrls01.avgWrBWSys                    0.00                       # Average system write bandwidth in MiByte/s
system.mem_ctrls01.peakBW                    12800.00                       # Theoretical peak bandwidth in MiByte/s
system.mem_ctrls01.busUtil                       0.00                       # Data bus utilization in percentage
system.mem_ctrls01.busUtilRead                   0.00                       # Data bus utilization in percentage for reads
system.mem_ctrls01.busUtilWrite                  0.00                       # Data bus utilization in percentage for writes
system.mem_ctrls01.avgRdQLen                     0.00                       # Average read queue length when enqueuing
system.mem_ctrls01.avgWrQLen                     0.00                       # Average write queue length when enqueuing
system.mem_ctrls01.readRowHits                      0                       # Number of row buffer hits during reads
system.mem_ctrls01.writeRowHits                     0                       # Number of row buffer hits during writes
system.mem_ctrls01.readRowHitRate                 nan                       # Row buffer hit rate for reads
system.mem_ctrls01.writeRowHitRate                nan                       # Row buffer hit rate for writes
system.mem_ctrls01.avgGap                         nan                       # Average gap between requests
system.mem_ctrls01.pageHitRate                    nan                       # Row buffer hit rate, read and write combined
system.mem_ctrls01_0.actEnergy                      0                       # Energy for activate commands per rank (pJ)
system.mem_ctrls01_0.preEnergy                      0                       # Energy for precharge commands per rank (pJ)
system.mem_ctrls01_0.readEnergy                     0                       # Energy for read commands per rank (pJ)
system.mem_ctrls01_0.writeEnergy                    0                       # Energy for write commands per rank (pJ)
system.mem_ctrls01_0.refreshEnergy                  0                       # Energy for refresh commands per rank (pJ)
system.mem_ctrls01_0.actBackEnergy                  0                       # Energy for active background per rank (pJ)
system.mem_ctrls01_0.preBackEnergy             384000                       # Energy for precharge background per rank (pJ)
system.mem_ctrls01_0.actPowerDownEnergy             0                       # Energy for active power-down per rank (pJ)
system.mem_ctrls01_0.prePowerDownEnergy             0                       # Energy for precharge power-down per rank (pJ)
system.mem_ctrls01_0.selfRefreshEnergy              0                       # Energy for self refresh per rank (pJ)
system.mem_ctrls01_0.totalEnergy               384000                       # Total energy per rank (pJ)
system.mem_ctrls01_0.averagePower                 384                       # Core power per rank (mW)
system.mem_ctrls01_0.totalIdleTime                  0                       # Total Idle time Per DRAM Rank
system.mem_ctrls01_0.memoryStateTime::IDLE         1000                       # Time in different power states
system.mem_ctrls01_0.memoryStateTime::REF            0                       # Time in different power states
system.mem_ctrls01_0.memoryStateTime::SREF            0                       # Time in different power states
system.mem_ctrls01_0.memoryStateTime::PRE_PDN            0                       # Time in different power states
system.mem_ctrls01_0.memoryStateTime::ACT            0                       # Time in different power states
system.mem_ctrls01_0.memoryStateTime::ACT_PDN            0                       # Time in different power states
system.mem_ctrls01_1.actEnergy                      0                       # Energy for activate commands per rank (pJ)
system.mem_ctrls01_1.preEnergy                      0                       # Energy for precharge commands per rank (pJ)
system.mem_ctrls01_1.readEnergy                     0                       # Energy for read commands per rank (pJ)
system.mem_ctrls01_1.writeEnergy                    0                       # Energy for write commands per rank (pJ)
system.mem_ctrls01_1.refreshEnergy                  0                       # Energy for refresh commands per rank (pJ)
system.mem_ctrls01_1.actBackEnergy                  0                       # Energy for active background per rank (pJ)
system.mem_ctrls01_1.preBackEnergy             384000                       # Energy for precharge background per rank (pJ)
system.mem_ctrls01_1.actPowerDownEnergy             0                       # Energy for active power-down per rank (pJ)
system.mem_ctrls01_1.prePowerDownEnergy             0                       # Energy for precharge power-down per rank (pJ)
system.mem_ctrls01_1.selfRefreshEnergy              0                       # Energy for self refresh per rank (pJ)
system.mem_ctrls01_1.totalEnergy               384000                       # Total energy per rank (pJ)
system.mem_ctrls01_1.averagePower                 384                       # Core power per rank (mW)
system.mem_ctrls01_1.totalIdleTime                  0                       # Total Idle time Per DRAM Rank
system.mem_ctrls01_1.memoryStateTime::IDLE         1000                       # Time in different power states
system.mem_ctrls01_1.memoryStateTime::REF            0                       # Time in different power states
system.mem_ctrls01_1.memoryStateTime::SREF            0                       # Time in different power states
system.mem_ctrls01_1.memoryStateTime::PRE_PDN            0                       # Time in different power states
system.mem_ctrls01_1.memoryStateTime::ACT            0                       # Time in different power states
system.mem_ctrls01_1.memoryStateTime::ACT_PDN            0                       # Time in different power states
system.mem_ctrls02.pwrStateResidencyTicks::UNDEFINED         1000                       # Cumulative time (in ticks) in various power states
system.mem_ctrls02.readReqs                         0                       # Number of read requests accepted
system.mem_ctrls02.writeReqs                        0                       # Number of write requests accepted
system.mem_ctrls02.readBursts                       0                       # Number of DRAM read bursts, including those serviced by the write queue
system.mem_ctrls02.writeBursts                      0                       # Number of DRAM write bursts, including those merged in the write queue
system.mem_ctrls02.bytesReadDRAM                    0                       # Total number of bytes read from DRAM
system.mem_ctrls02.bytesReadWrQ                     0                       # Total number of bytes read from write queue
system.mem_ctrls02.bytesWritten                     0                       # Total number of bytes written to DRAM
system.mem_ctrls02.bytesReadSys                     0                       # Total read bytes from the system interface side
system.mem_ctrls02.bytesWrittenSys                  0                       # Total written bytes from the system interface side
system.mem_ctrls02.servicedByWrQ                    0                       # Number of DRAM read bursts serviced by the write queue
system.mem_ctrls02.mergedWrBursts                   0                       # Number of DRAM write bursts merged with an existing one
system.mem_ctrls02.neitherReadNorWriteReqs            0                       # Number of requests that are neither read nor write
system.mem_ctrls02.perBankRdBursts::0               0                       # Per bank write bursts
system.mem_ctrls02.perBankRdBursts::1               0                       # Per bank write bursts
system.mem_ctrls02.perBankRdBursts::2               0                       # Per bank write bursts
system.mem_ctrls02.perBankRdBursts::3               0                       # Per bank write bursts
system.mem_ctrls02.perBankRdBursts::4               0                       # Per bank write bursts
system.mem_ctrls02.perBankRdBursts::5               0                       # Per bank write bursts
system.mem_ctrls02.perBankRdBursts::6               0                       # Per bank write bursts
system.mem_ctrls02.perBankRdBursts::7               0                       # Per bank write bursts
system.mem_ctrls02.perBankRdBursts::8               0                       # Per bank write bursts
system.mem_ctrls02.perBankRdBursts::9               0                       # Per bank write bursts
system.mem_ctrls02.perBankRdBursts::10              0                       # Per bank write bursts
system.mem_ctrls02.perBankRdBursts::11              0                       # Per bank write bursts
system.mem_ctrls02.perBankRdBursts::12              0                       # Per bank write bursts
system.mem_ctrls02.perBankRdBursts::13              0                       # Per bank write bursts
system.mem_ctrls02.perBankRdBursts::14              0                       # Per bank write bursts
system.mem_ctrls02.perBankRdBursts::15              0                       # Per bank write bursts
system.mem_ctrls02.perBankWrBursts::0               0                       # Per bank write bursts
system.mem_ctrls02.perBankWrBursts::1               0                       # Per bank write bursts
system.mem_ctrls02.perBankWrBursts::2               0                       # Per bank write bursts
system.mem_ctrls02.perBankWrBursts::3               0                       # Per bank write bursts
system.mem_ctrls02.perBankWrBursts::4               0                       # Per bank write bursts
system.mem_ctrls02.perBankWrBursts::5               0                       # Per bank write bursts
system.mem_ctrls02.perBankWrBursts::6               0                       # Per bank write bursts
system.mem_ctrls02.perBankWrBursts::7               0                       # Per bank write bursts
system.mem_ctrls02.perBankWrBursts::8               0                       # Per bank write bursts
system.mem_ctrls02.perBankWrBursts::9               0                       # Per bank write bursts
system.mem_ctrls02.perBankWrBursts::10              0                       # Per bank write bursts
system.mem_ctrls02.perBankWrBursts::11              0                       # Per bank write bursts
system.mem_ctrls02.perBankWrBursts::12              0                       # Per bank write bursts
system.mem_ctrls02.perBankWrBursts::13              0                       # Per bank write bursts
system.mem_ctrls02.perBankWrBursts::14              0                       # Per bank write bursts
system.mem_ctrls02.perBankWrBursts::15              0                       # Per bank write bursts
system.mem_ctrls02.numRdRetry                       0                       # Number of times read queue was full causing retry
system.mem_ctrls02.numWrRetry                       0                       # Number of times write queue was full causing retry
system.mem_ctrls02.totGap                           0                       # Total gap between requests
system.mem_ctrls02.readPktSize::0                   0                       # Read request sizes (log2)
system.mem_ctrls02.readPktSize::1                   0                       # Read request sizes (log2)
system.mem_ctrls02.readPktSize::2                   0                       # Read request sizes (log2)
system.mem_ctrls02.readPktSize::3                   0                       # Read request sizes (log2)
system.mem_ctrls02.readPktSize::4                   0                       # Read request sizes (log2)
system.mem_ctrls02.readPktSize::5                   0                       # Read request sizes (log2)
system.mem_ctrls02.readPktSize::6                   0                       # Read request sizes (log2)
system.mem_ctrls02.writePktSize::0                  0                       # Write request sizes (log2)
system.mem_ctrls02.writePktSize::1                  0                       # Write request sizes (log2)
system.mem_ctrls02.writePktSize::2                  0                       # Write request sizes (log2)
system.mem_ctrls02.writePktSize::3                  0                       # Write request sizes (log2)
system.mem_ctrls02.writePktSize::4                  0                       # Write request sizes (log2)
system.mem_ctrls02.writePktSize::5                  0                       # Write request sizes (log2)
system.mem_ctrls02.writePktSize::6                  0                       # Write request sizes (log2)
system.mem_ctrls02.rdQLenPdf::0                     0                       # What read queue length does an incoming req see
system.mem_ctrls02.rdQLenPdf::1                     0                       # What read queue length does an incoming req see
system.mem_ctrls02.rdQLenPdf::2                     0                       # What read queue length does an incoming req see
system.mem_ctrls02.rdQLenPdf::3                     0                       # What read queue length does an incoming req see
system.mem_ctrls02.rdQLenPdf::4                     0                       # What read queue length does an incoming req see
system.mem_ctrls02.rdQLenPdf::5                     0                       # What read queue length does an incoming req see
system.mem_ctrls02.rdQLenPdf::6                     0                       # What read queue length does an incoming req see
system.mem_ctrls02.rdQLenPdf::7                     0                       # What read queue length does an incoming req see
system.mem_ctrls02.rdQLenPdf::8                     0                       # What read queue length does an incoming req see
system.mem_ctrls02.rdQLenPdf::9                     0                       # What read queue length does an incoming req see
system.mem_ctrls02.rdQLenPdf::10                    0                       # What read queue length does an incoming req see
system.mem_ctrls02.rdQLenPdf::11                    0                       # What read queue length does an incoming req see
system.mem_ctrls02.rdQLenPdf::12                    0                       # What read queue length does an incoming req see
system.mem_ctrls02.rdQLenPdf::13                    0                       # What read queue length does an incoming req see
system.mem_ctrls02.rdQLenPdf::14                    0                       # What read queue length does an incoming req see
system.mem_ctrls02.rdQLenPdf::15                    0                       # What read queue length does an incoming req see
system.mem_ctrls02.rdQLenPdf::16                    0                       # What read queue length does an incoming req see
system.mem_ctrls02.rdQLenPdf::17                    0                       # What read queue length does an incoming req see
system.mem_ctrls02.rdQLenPdf::18                    0                       # What read queue length does an incoming req see
system.mem_ctrls02.rdQLenPdf::19                    0                       # What read queue length does an incoming req see
system.mem_ctrls02.rdQLenPdf::20                    0                       # What read queue length does an incoming req see
system.mem_ctrls02.rdQLenPdf::21                    0                       # What read queue length does an incoming req see
system.mem_ctrls02.rdQLenPdf::22                    0                       # What read queue length does an incoming req see
system.mem_ctrls02.rdQLenPdf::23                    0                       # What read queue length does an incoming req see
system.mem_ctrls02.rdQLenPdf::24                    0                       # What read queue length does an incoming req see
system.mem_ctrls02.rdQLenPdf::25                    0                       # What read queue length does an incoming req see
system.mem_ctrls02.rdQLenPdf::26                    0                       # What read queue length does an incoming req see
system.mem_ctrls02.rdQLenPdf::27                    0                       # What read queue length does an incoming req see
system.mem_ctrls02.rdQLenPdf::28                    0                       # What read queue length does an incoming req see
system.mem_ctrls02.rdQLenPdf::29                    0                       # What read queue length does an incoming req see
system.mem_ctrls02.rdQLenPdf::30                    0                       # What read queue length does an incoming req see
system.mem_ctrls02.rdQLenPdf::31                    0                       # What read queue length does an incoming req see
system.mem_ctrls02.wrQLenPdf::0                     0                       # What write queue length does an incoming req see
system.mem_ctrls02.wrQLenPdf::1                     0                       # What write queue length does an incoming req see
system.mem_ctrls02.wrQLenPdf::2                     0                       # What write queue length does an incoming req see
system.mem_ctrls02.wrQLenPdf::3                     0                       # What write queue length does an incoming req see
system.mem_ctrls02.wrQLenPdf::4                     0                       # What write queue length does an incoming req see
system.mem_ctrls02.wrQLenPdf::5                     0                       # What write queue length does an incoming req see
system.mem_ctrls02.wrQLenPdf::6                     0                       # What write queue length does an incoming req see
system.mem_ctrls02.wrQLenPdf::7                     0                       # What write queue length does an incoming req see
system.mem_ctrls02.wrQLenPdf::8                     0                       # What write queue length does an incoming req see
system.mem_ctrls02.wrQLenPdf::9                     0                       # What write queue length does an incoming req see
system.mem_ctrls02.wrQLenPdf::10                    0                       # What write queue length does an incoming req see
system.mem_ctrls02.wrQLenPdf::11                    0                       # What write queue length does an incoming req see
system.mem_ctrls02.wrQLenPdf::12                    0                       # What write queue length does an incoming req see
system.mem_ctrls02.wrQLenPdf::13                    0                       # What write queue length does an incoming req see
system.mem_ctrls02.wrQLenPdf::14                    0                       # What write queue length does an incoming req see
system.mem_ctrls02.wrQLenPdf::15                    0                       # What write queue length does an incoming req see
system.mem_ctrls02.wrQLenPdf::16                    0                       # What write queue length does an incoming req see
system.mem_ctrls02.wrQLenPdf::17                    0                       # What write queue length does an incoming req see
system.mem_ctrls02.wrQLenPdf::18                    0                       # What write queue length does an incoming req see
system.mem_ctrls02.wrQLenPdf::19                    0                       # What write queue length does an incoming req see
system.mem_ctrls02.wrQLenPdf::20                    0                       # What write queue length does an incoming req see
system.mem_ctrls02.wrQLenPdf::21                    0                       # What write queue length does an incoming req see
system.mem_ctrls02.wrQLenPdf::22                    0                       # What write queue length does an incoming req see
system.mem_ctrls02.wrQLenPdf::23                    0                       # What write queue length does an incoming req see
system.mem_ctrls02.wrQLenPdf::24                    0                       # What write queue length does an incoming req see
system.mem_ctrls02.wrQLenPdf::25                    0                       # What write queue length does an incoming req see
system.mem_ctrls02.wrQLenPdf::26                    0                       # What write queue length does an incoming req see
system.mem_ctrls02.wrQLenPdf::27                    0                       # What write queue length does an incoming req see
system.mem_ctrls02.wrQLenPdf::28                    0                       # What write queue length does an incoming req see
system.mem_ctrls02.wrQLenPdf::29                    0                       # What write queue length does an incoming req see
system.mem_ctrls02.wrQLenPdf::30                    0                       # What write queue length does an incoming req see
system.mem_ctrls02.wrQLenPdf::31                    0                       # What write queue length does an incoming req see
system.mem_ctrls02.wrQLenPdf::32                    0                       # What write queue length does an incoming req see
system.mem_ctrls02.wrQLenPdf::33                    0                       # What write queue length does an incoming req see
system.mem_ctrls02.wrQLenPdf::34                    0                       # What write queue length does an incoming req see
system.mem_ctrls02.wrQLenPdf::35                    0                       # What write queue length does an incoming req see
system.mem_ctrls02.wrQLenPdf::36                    0                       # What write queue length does an incoming req see
system.mem_ctrls02.wrQLenPdf::37                    0                       # What write queue length does an incoming req see
system.mem_ctrls02.wrQLenPdf::38                    0                       # What write queue length does an incoming req see
system.mem_ctrls02.wrQLenPdf::39                    0                       # What write queue length does an incoming req see
system.mem_ctrls02.wrQLenPdf::40                    0                       # What write queue length does an incoming req see
system.mem_ctrls02.wrQLenPdf::41                    0                       # What write queue length does an incoming req see
system.mem_ctrls02.wrQLenPdf::42                    0                       # What write queue length does an incoming req see
system.mem_ctrls02.wrQLenPdf::43                    0                       # What write queue length does an incoming req see
system.mem_ctrls02.wrQLenPdf::44                    0                       # What write queue length does an incoming req see
system.mem_ctrls02.wrQLenPdf::45                    0                       # What write queue length does an incoming req see
system.mem_ctrls02.wrQLenPdf::46                    0                       # What write queue length does an incoming req see
system.mem_ctrls02.wrQLenPdf::47                    0                       # What write queue length does an incoming req see
system.mem_ctrls02.wrQLenPdf::48                    0                       # What write queue length does an incoming req see
system.mem_ctrls02.wrQLenPdf::49                    0                       # What write queue length does an incoming req see
system.mem_ctrls02.wrQLenPdf::50                    0                       # What write queue length does an incoming req see
system.mem_ctrls02.wrQLenPdf::51                    0                       # What write queue length does an incoming req see
system.mem_ctrls02.wrQLenPdf::52                    0                       # What write queue length does an incoming req see
system.mem_ctrls02.wrQLenPdf::53                    0                       # What write queue length does an incoming req see
system.mem_ctrls02.wrQLenPdf::54                    0                       # What write queue length does an incoming req see
system.mem_ctrls02.wrQLenPdf::55                    0                       # What write queue length does an incoming req see
system.mem_ctrls02.wrQLenPdf::56                    0                       # What write queue length does an incoming req see
system.mem_ctrls02.wrQLenPdf::57                    0                       # What write queue length does an incoming req see
system.mem_ctrls02.wrQLenPdf::58                    0                       # What write queue length does an incoming req see
system.mem_ctrls02.wrQLenPdf::59                    0                       # What write queue length does an incoming req see
system.mem_ctrls02.wrQLenPdf::60                    0                       # What write queue length does an incoming req see
system.mem_ctrls02.wrQLenPdf::61                    0                       # What write queue length does an incoming req see
system.mem_ctrls02.wrQLenPdf::62                    0                       # What write queue length does an incoming req see
system.mem_ctrls02.wrQLenPdf::63                    0                       # What write queue length does an incoming req see
system.mem_ctrls02.totQLat                          0                       # Total ticks spent queuing
system.mem_ctrls02.totMemAccLat                     0                       # Total ticks spent from burst creation until serviced by the DRAM
system.mem_ctrls02.totBusLat                        0                       # Total ticks spent in databus transfers
system.mem_ctrls02.avgQLat                        nan                       # Average queueing delay per DRAM burst
system.mem_ctrls02.avgBusLat                      nan                       # Average bus latency per DRAM burst
system.mem_ctrls02.avgMemAccLat                   nan                       # Average memory access latency per DRAM burst
system.mem_ctrls02.avgRdBW                       0.00                       # Average DRAM read bandwidth in MiByte/s
system.mem_ctrls02.avgWrBW                       0.00                       # Average achieved write bandwidth in MiByte/s
system.mem_ctrls02.avgRdBWSys                    0.00                       # Average system read bandwidth in MiByte/s
system.mem_ctrls02.avgWrBWSys                    0.00                       # Average system write bandwidth in MiByte/s
system.mem_ctrls02.peakBW                    12800.00                       # Theoretical peak bandwidth in MiByte/s
system.mem_ctrls02.busUtil                       0.00                       # Data bus utilization in percentage
system.mem_ctrls02.busUtilRead                   0.00                       # Data bus utilization in percentage for reads
system.mem_ctrls02.busUtilWrite                  0.00                       # Data bus utilization in percentage for writes
system.mem_ctrls02.avgRdQLen                     0.00                       # Average read queue length when enqueuing
system.mem_ctrls02.avgWrQLen                     0.00                       # Average write queue length when enqueuing
system.mem_ctrls02.readRowHits                      0                       # Number of row buffer hits during reads
system.mem_ctrls02.writeRowHits                     0                       # Number of row buffer hits during writes
system.mem_ctrls02.readRowHitRate                 nan                       # Row buffer hit rate for reads
system.mem_ctrls02.writeRowHitRate                nan                       # Row buffer hit rate for writes
system.mem_ctrls02.avgGap                         nan                       # Average gap between requests
system.mem_ctrls02.pageHitRate                    nan                       # Row buffer hit rate, read and write combined
system.mem_ctrls02_0.actEnergy                      0                       # Energy for activate commands per rank (pJ)
system.mem_ctrls02_0.preEnergy                      0                       # Energy for precharge commands per rank (pJ)
system.mem_ctrls02_0.readEnergy                     0                       # Energy for read commands per rank (pJ)
system.mem_ctrls02_0.writeEnergy                    0                       # Energy for write commands per rank (pJ)
system.mem_ctrls02_0.refreshEnergy                  0                       # Energy for refresh commands per rank (pJ)
system.mem_ctrls02_0.actBackEnergy                  0                       # Energy for active background per rank (pJ)
system.mem_ctrls02_0.preBackEnergy             384000                       # Energy for precharge background per rank (pJ)
system.mem_ctrls02_0.actPowerDownEnergy             0                       # Energy for active power-down per rank (pJ)
system.mem_ctrls02_0.prePowerDownEnergy             0                       # Energy for precharge power-down per rank (pJ)
system.mem_ctrls02_0.selfRefreshEnergy              0                       # Energy for self refresh per rank (pJ)
system.mem_ctrls02_0.totalEnergy               384000                       # Total energy per rank (pJ)
system.mem_ctrls02_0.averagePower                 384                       # Core power per rank (mW)
system.mem_ctrls02_0.totalIdleTime                  0                       # Total Idle time Per DRAM Rank
system.mem_ctrls02_0.memoryStateTime::IDLE         1000                       # Time in different power states
system.mem_ctrls02_0.memoryStateTime::REF            0                       # Time in different power states
system.mem_ctrls02_0.memoryStateTime::SREF            0                       # Time in different power states
system.mem_ctrls02_0.memoryStateTime::PRE_PDN            0                       # Time in different power states
system.mem_ctrls02_0.memoryStateTime::ACT            0                       # Time in different power states
system.mem_ctrls02_0.memoryStateTime::ACT_PDN            0                       # Time in different power states
system.mem_ctrls02_1.actEnergy                      0                       # Energy for activate commands per rank (pJ)
system.mem_ctrls02_1.preEnergy                      0                       # Energy for precharge commands per rank (pJ)
system.mem_ctrls02_1.readEnergy                     0                       # Energy for read commands per rank (pJ)
system.mem_ctrls02_1.writeEnergy                    0                       # Energy for write commands per rank (pJ)
system.mem_ctrls02_1.refreshEnergy                  0                       # Energy for refresh commands per rank (pJ)
system.mem_ctrls02_1.actBackEnergy                  0                       # Energy for active background per rank (pJ)
system.mem_ctrls02_1.preBackEnergy             384000                       # Energy for precharge background per rank (pJ)
system.mem_ctrls02_1.actPowerDownEnergy             0                       # Energy for active power-down per rank (pJ)
system.mem_ctrls02_1.prePowerDownEnergy             0                       # Energy for precharge power-down per rank (pJ)
system.mem_ctrls02_1.selfRefreshEnergy              0                       # Energy for self refresh per rank (pJ)
system.mem_ctrls02_1.totalEnergy               384000                       # Total energy per rank (pJ)
system.mem_ctrls02_1.averagePower                 384                       # Core power per rank (mW)
system.mem_ctrls02_1.totalIdleTime                  0                       # Total Idle time Per DRAM Rank
system.mem_ctrls02_1.memoryStateTime::IDLE         1000                       # Time in different power states
system.mem_ctrls02_1.memoryStateTime::REF            0                       # Time in different power states
system.mem_ctrls02_1.memoryStateTime::SREF            0                       # Time in different power states
system.mem_ctrls02_1.memoryStateTime::PRE_PDN            0                       # Time in different power states
system.mem_ctrls02_1.memoryStateTime::ACT            0                       # Time in different power states
system.mem_ctrls02_1.memoryStateTime::ACT_PDN            0                       # Time in different power states
system.mem_ctrls03.pwrStateResidencyTicks::UNDEFINED         1000                       # Cumulative time (in ticks) in various power states
system.mem_ctrls03.readReqs                         0                       # Number of read requests accepted
system.mem_ctrls03.writeReqs                        0                       # Number of write requests accepted
system.mem_ctrls03.readBursts                       0                       # Number of DRAM read bursts, including those serviced by the write queue
system.mem_ctrls03.writeBursts                      0                       # Number of DRAM write bursts, including those merged in the write queue
system.mem_ctrls03.bytesReadDRAM                    0                       # Total number of bytes read from DRAM
system.mem_ctrls03.bytesReadWrQ                     0                       # Total number of bytes read from write queue
system.mem_ctrls03.bytesWritten                     0                       # Total number of bytes written to DRAM
system.mem_ctrls03.bytesReadSys                     0                       # Total read bytes from the system interface side
system.mem_ctrls03.bytesWrittenSys                  0                       # Total written bytes from the system interface side
system.mem_ctrls03.servicedByWrQ                    0                       # Number of DRAM read bursts serviced by the write queue
[...]
system.ruby.network.netifs098.pwrStateResidencyTicks::UNDEFINED         1000                       # Cumulative time (in ticks) in various power states
system.ruby.network.netifs099.pwrStateResidencyTicks::UNDEFINED         1000                       # Cumulative time (in ticks) in various power states
system.ruby.network.netifs100.pwrStateResidencyTicks::UNDEFINED         1000                       # Cumulative time (in ticks) in various power states
system.ruby.network.netifs101.pwrStateResidencyTicks::UNDEFINED         1000                       # Cumulative time (in ticks) in various power states
system.ruby.network.netifs102.pwrStateResidencyTicks::UNDEFINED         1000                       # Cumulative time (in ticks) in various power states
system.ruby.network.netifs103.pwrStateResidencyTicks::UNDEFINED         1000                       # Cumulative time (in ticks) in various power states
system.ruby.network.netifs104.pwrStateResidencyTicks::UNDEFINED         1000                       # Cumulative time (in ticks) in various power states
system.ruby.network.netifs105.pwrStateResidencyTicks::UNDEFINED         1000                       # Cumulative time (in ticks) in various power states
system.ruby.network.netifs106.pwrStateResidencyTicks::UNDEFINED         1000                       # Cumulative time (in ticks) in various power states
system.ruby.network.netifs107.pwrStateResidencyTicks::UNDEFINED         1000                       # Cumulative time (in ticks) in various power states
system.ruby.network.netifs108.pwrStateResidencyTicks::UNDEFINED         1000                       # Cumulative time (in ticks) in various power states
system.ruby.network.netifs109.pwrStateResidencyTicks::UNDEFINED         1000                       # Cumulative time (in ticks) in various power states
system.ruby.network.netifs110.pwrStateResidencyTicks::UNDEFINED         1000                       # Cumulative time (in ticks) in various power states
system.ruby.network.netifs111.pwrStateResidencyTicks::UNDEFINED         1000                       # Cumulative time (in ticks) in various power states
system.ruby.network.netifs112.pwrStateResidencyTicks::UNDEFINED         1000                       # Cumulative time (in ticks) in various power states
system.ruby.network.netifs113.pwrStateResidencyTicks::UNDEFINED         1000                       # Cumulative time (in ticks) in various power states
system.ruby.network.netifs114.pwrStateResidencyTicks::UNDEFINED         1000                       # Cumulative time (in ticks) in various power states
system.ruby.network.netifs115.pwrStateResidencyTicks::UNDEFINED         1000                       # Cumulative time (in ticks) in various power states
system.ruby.network.netifs116.pwrStateResidencyTicks::UNDEFINED         1000                       # Cumulative time (in ticks) in various power states
system.ruby.network.netifs117.pwrStateResidencyTicks::UNDEFINED         1000                       # Cumulative time (in ticks) in various power states
system.ruby.network.netifs118.pwrStateResidencyTicks::UNDEFINED         1000                       # Cumulative time (in ticks) in various power states
system.ruby.network.netifs119.pwrStateResidencyTicks::UNDEFINED         1000                       # Cumulative time (in ticks) in various power states
system.ruby.network.netifs120.pwrStateResidencyTicks::UNDEFINED         1000                       # Cumulative time (in ticks) in various power states
system.ruby.network.netifs121.pwrStateResidencyTicks::UNDEFINED         1000                       # Cumulative time (in ticks) in various power states
system.ruby.network.netifs122.pwrStateResidencyTicks::UNDEFINED         1000                       # Cumulative time (in ticks) in various power states
system.ruby.network.netifs123.pwrStateResidencyTicks::UNDEFINED         1000                       # Cumulative time (in ticks) in various power states
system.ruby.network.netifs124.pwrStateResidencyTicks::UNDEFINED         1000                       # Cumulative time (in ticks) in various power states
system.ruby.network.netifs125.pwrStateResidencyTicks::UNDEFINED         1000                       # Cumulative time (in ticks) in various power states
system.ruby.network.netifs126.pwrStateResidencyTicks::UNDEFINED         1000                       # Cumulative time (in ticks) in various power states
system.ruby.network.netifs127.pwrStateResidencyTicks::UNDEFINED         1000                       # Cumulative time (in ticks) in various power states
system.ruby.network.pwrStateResidencyTicks::UNDEFINED         1000                       # Cumulative time (in ticks) in various power states
system.ruby.network.packets_received     |       12898    100.00%    100.00% |           0      0.00%    100.00% |           0      0.00%    100.00%
system.ruby.network.packets_received::total        12898                      
system.ruby.network.packets_injected     |       13516    100.00%    100.00% |           0      0.00%    100.00% |           0      0.00%    100.00%
system.ruby.network.packets_injected::total        13516                      
system.ruby.network.packet_network_latency |      270477                       |           0                       |           0                      
system.ruby.network.packet_queueing_latency |      399133                       |           0                       |           0                      
system.ruby.network.average_packet_vnet_latency |   20.970461                       |         nan                       |         nan                      
system.ruby.network.average_packet_vqueue_latency |   30.945340                       |         nan                       |         nan                      
system.ruby.network.average_packet_network_latency    20.970461                      
system.ruby.network.average_packet_queueing_latency    30.945340                      
system.ruby.network.average_packet_latency    51.915801                      
system.ruby.network.flits_received       |       12898    100.00%    100.00% |           0      0.00%    100.00% |           0      0.00%    100.00%
system.ruby.network.flits_received::total        12898                      
system.ruby.network.flits_injected       |       13516    100.00%    100.00% |           0      0.00%    100.00% |           0      0.00%    100.00%
system.ruby.network.flits_injected::total        13516                      
system.ruby.network.flit_network_latency |      270477                       |           0                       |           0                      
system.ruby.network.flit_queueing_latency |      399133                       |           0                       |           0                      
system.ruby.network.average_flit_vnet_latency |   20.970461                       |         nan                       |         nan                      
system.ruby.network.average_flit_vqueue_latency |   30.945340                       |         nan                       |         nan                      
system.ruby.network.average_flit_network_latency    20.970461                      
system.ruby.network.average_flit_queueing_latency    30.945340                      
system.ruby.network.average_flit_latency    51.915801                      
system.ruby.network.ext_in_link_utilization        13505                      
system.ruby.network.ext_out_link_utilization        12908                      
system.ruby.network.int_link_utilization        45398                      
system.ruby.network.avg_link_utilization    71.811000                      
system.ruby.network.avg_vc_load          |   34.277000     47.73%     47.73% |   19.869000     27.67%     75.40% |   11.027000     15.36%     90.76% |    6.638000      9.24%    100.00% |           0      0.00%    100.00% |           0      0.00%    100.00% |           0      0.00%    100.00% |           0      0.00%    100.00% |           0      0.00%    100.00% |           0      0.00%    100.00% |           0      0.00%    100.00% |           0      0.00%    100.00%
system.ruby.network.avg_vc_load::total      71.811000                      
system.ruby.network.average_hops             3.440611                      
system.sys_port_proxy.pwrStateResidencyTicks::UNDEFINED         1000                       # Cumulative time (in ticks) in various power states
system.ruby.LD.latency_hist_seqr::bucket_size            1                      
system.ruby.LD.latency_hist_seqr::max_bucket            9                      
system.ruby.LD.latency_hist_seqr::samples        25464                      
system.ruby.LD.latency_hist_seqr::mean              1                      
system.ruby.LD.latency_hist_seqr::gmean             1                      
system.ruby.LD.latency_hist_seqr         |           0      0.00%      0.00% |       25464    100.00%    100.00% |           0      0.00%    100.00% |           0      0.00%    100.00% |           0      0.00%    100.00% |           0      0.00%    100.00% |           0      0.00%    100.00% |           0      0.00%    100.00% |           0      0.00%    100.00% |           0      0.00%    100.00%
system.ruby.LD.latency_hist_seqr::total         25464                      
system.ruby.LD.hit_latency_hist_seqr::bucket_size            1                      
system.ruby.LD.hit_latency_hist_seqr::max_bucket            9                      
system.ruby.LD.hit_latency_hist_seqr::samples        25464                      
system.ruby.LD.hit_latency_hist_seqr::mean            1                      
system.ruby.LD.hit_latency_hist_seqr::gmean            1                      
system.ruby.LD.hit_latency_hist_seqr     |           0      0.00%      0.00% |       25464    100.00%    100.00% |           0      0.00%    100.00% |           0      0.00%    100.00% |           0      0.00%    100.00% |           0      0.00%    100.00% |           0      0.00%    100.00% |           0      0.00%    100.00% |           0      0.00%    100.00% |           0      0.00%    100.00%
system.ruby.LD.hit_latency_hist_seqr::total        25464                      
system.ruby.Directory_Controller.Receive_Request |         416      3.23%      3.23% |          73      0.57%      3.79% |          63      0.49%      4.28% |          41      0.32%      4.60% |         377      2.92%      7.53% |         382      2.96%     10.49% |         361      2.80%     13.29% |         385      2.99%     16.28% |         408      3.17%     19.44% |          48      0.37%     19.81% |          60      0.47%     20.28% |          40      0.31%     20.59% |         356      2.76%     23.35% |         166      1.29%     24.64% |         176      1.37%     26.00% |         370      2.87%     28.88% |         354      2.75%     31.62% |         110      0.85%     32.47% |          78      0.61%     33.08% |          50      0.39%     33.47% |         246      1.91%     35.38% |          32      0.25%     35.62% |         163      1.26%     36.89% |         365      2.83%     39.72% |         287      2.23%     41.95% |          83      0.64%     42.59% |          30      0.23%     42.82% |          31      0.24%     43.06% |         211      1.64%     44.70% |          39      0.30%     45.00% |         302      2.34%     47.35% |         389      3.02%     50.36% |         220      1.71%     52.07% |          70      0.54%     52.61% |          58      0.45%     53.06% |          94      0.73%     53.79% |         176      1.37%     55.16% |         378      2.93%     58.09% |         347      2.69%     60.78% |         245      1.90%     62.68% |         231      1.79%     64.48% |          66      0.51%     64.99% |          30      0.23%     65.22% |          83      0.64%     65.87% |         119      0.92%     66.79% |         343      2.66%     69.45% |         223      1.73%     71.18% |         360      2.79%     73.97% |         259      2.01%     75.98% |          86      0.67%     76.65% |          65      0.50%     77.15% |          66      0.51%     77.66% |          75      0.58%     78.25% |         373      2.89%     81.14% |         383      2.97%     84.11% |         278      2.16%     86.27% |         400      3.10%     89.37% |          43      0.33%     89.71% |          33      0.26%     89.96% |          38      0.29%     90.26% |          80      0.62%     90.88% |         405      3.14%     94.02% |         388      3.01%     97.03% |         383      2.97%    100.00%
system.ruby.Directory_Controller.Receive_Request::total        12890                      
system.ruby.Directory_Controller.I.Receive_Request |         416      3.23%      3.23% |          73      0.57%      3.79% |          63      0.49%      4.28% |          41      0.32%      4.60% |         377      2.92%      7.53% |         382      2.96%     10.49% |         361      2.80%     13.29% |         385      2.99%     16.28% |         408      3.17%     19.44% |          48      0.37%     19.81% |          60      0.47%     20.28% |          40      0.31%     20.59% |         356      2.76%     23.35% |         166      1.29%     24.64% |         176      1.37%     26.00% |         370      2.87%     28.88% |         354      2.75%     31.62% |         110      0.85%     32.47% |          78      0.61%     33.08% |          50      0.39%     33.47% |         246      1.91%     35.38% |          32      0.25%     35.62% |         163      1.26%     36.89% |         365      2.83%     39.72% |         287      2.23%     41.95% |          83      0.64%     42.59% |          30      0.23%     42.82% |          31      0.24%     43.06% |         211      1.64%     44.70% |          39      0.30%     45.00% |         302      2.34%     47.35% |         389      3.02%     50.36% |         220      1.71%     52.07% |          70      0.54%     52.61% |          58      0.45%     53.06% |          94      0.73%     53.79% |         176      1.37%     55.16% |         378      2.93%     58.09% |         347      2.69%     60.78% |         245      1.90%     62.68% |         231      1.79%     64.48% |          66      0.51%     64.99% |          30      0.23%     65.22% |          83      0.64%     65.87% |         119      0.92%     66.79% |         343      2.66%     69.45% |         223      1.73%     71.18% |         360      2.79%     73.97% |         259      2.01%     75.98% |          86      0.67%     76.65% |          65      0.50%     77.15% |          66      0.51%     77.66% |          75      0.58%     78.25% |         373      2.89%     81.14% |         383      2.97%     84.11% |         278      2.16%     86.27% |         400      3.10%     89.37% |          43      0.33%     89.71% |          33      0.26%     89.96% |          38      0.29%     90.26% |          80      0.62%     90.88% |         405      3.14%     94.02% |         388      3.01%     97.03% |         383      2.97%    100.00%
system.ruby.Directory_Controller.I.Receive_Request::total        12890                      
system.ruby.L1Cache_Controller.Request   |         420      1.65%      1.65% |         383      1.50%      3.15% |         371      1.46%      4.61% |         409      1.61%      6.22% |         406      1.59%      7.81% |         390      1.53%      9.34% |         426      1.67%     11.02% |         403      1.58%     12.60% |         386      1.52%     14.11% |         409      1.61%     15.72% |         392      1.54%     17.26% |         390      1.53%     18.79% |         373      1.46%     20.26% |         389      1.53%     21.78% |         388      1.52%     23.31% |         405      1.59%     24.90% |         413      1.62%     26.52% |         358      1.41%     27.93% |         404      1.59%     29.51% |         387      1.52%     31.03% |         374      1.47%     32.50% |         405      1.59%     34.09% |         415      1.63%     35.72% |         379      1.49%     37.21% |         392      1.54%     38.75% |         415      1.63%     40.38% |         402      1.58%     41.96% |         364      1.43%     43.39% |         391      1.54%     44.92% |         398      1.56%     46.49% |         374      1.47%     47.95% |         405      1.59%     49.54% |         410      1.61%     51.15% |         400      1.57%     52.73% |         388      1.52%     54.25% |         394      1.55%     55.80% |         415      1.63%     57.43% |         385      1.51%     58.94% |         420      1.65%     60.59% |         394      1.55%     62.13% |         432      1.70%     63.83% |         399      1.57%     65.40% |         406      1.59%     66.99% |         394      1.55%     68.54% |         411      1.61%     70.15% |         409      1.61%     71.76% |         375      1.47%     73.23% |         411      1.61%     74.85% |         394      1.55%     76.39% |         404      1.59%     77.98% |         405      1.59%     79.57% |         407      1.60%     81.17% |         398      1.56%     82.73% |         394      1.55%     84.28% |         408      1.60%     85.88% |         405      1.59%     87.47% |         389      1.53%     89.00% |         380      1.49%     90.49% |         416      1.63%     92.13% |         409      1.61%     93.73% |         417      1.64%     95.37% |         394      1.55%     96.92% |         400      1.57%     98.49% |         385      1.51%    100.00%
system.ruby.L1Cache_Controller.Request::total        25464                      
system.ruby.L1Cache_Controller.I.Request |         420      1.65%      1.65% |         383      1.50%      3.15% |         371      1.46%      4.61% |         409      1.61%      6.22% |         406      1.59%      7.81% |         390      1.53%      9.34% |         426      1.67%     11.02% |         403      1.58%     12.60% |         386      1.52%     14.11% |         409      1.61%     15.72% |         392      1.54%     17.26% |         390      1.53%     18.79% |         373      1.46%     20.26% |         389      1.53%     21.78% |         388      1.52%     23.31% |         405      1.59%     24.90% |         413      1.62%     26.52% |         358      1.41%     27.93% |         404      1.59%     29.51% |         387      1.52%     31.03% |         374      1.47%     32.50% |         405      1.59%     34.09% |         415      1.63%     35.72% |         379      1.49%     37.21% |         392      1.54%     38.75% |         415      1.63%     40.38% |         402      1.58%     41.96% |         364      1.43%     43.39% |         391      1.54%     44.92% |         398      1.56%     46.49% |         374      1.47%     47.95% |         405      1.59%     49.54% |         410      1.61%     51.15% |         400      1.57%     52.73% |         388      1.52%     54.25% |         394      1.55%     55.80% |         415      1.63%     57.43% |         385      1.51%     58.94% |         420      1.65%     60.59% |         394      1.55%     62.13% |         432      1.70%     63.83% |         399      1.57%     65.40% |         406      1.59%     66.99% |         394      1.55%     68.54% |         411      1.61%     70.15% |         409      1.61%     71.76% |         375      1.47%     73.23% |         411      1.61%     74.85% |         394      1.55%     76.39% |         404      1.59%     77.98% |         405      1.59%     79.57% |         407      1.60%     81.17% |         398      1.56%     82.73% |         394      1.55%     84.28% |         408      1.60%     85.88% |         405      1.59%     87.47% |         389      1.53%     89.00% |         380      1.49%     90.49% |         416      1.63%     92.13% |         409      1.61%     93.73% |         417      1.64%     95.37% |         394      1.55%     96.92% |         400      1.57%     98.49% |         385      1.51%    100.00%
system.ruby.L1Cache_Controller.I.Request::total        25464                      

---------- End Simulation Statistics   ----------
